51

Si        -2.76356        0.50373       -0.80236
O         -2.64408       -0.06281        0.73154
O         -3.71347        1.85730       -0.78988
O         -3.46982       -0.65647       -1.71915
O         -1.26704        0.87374       -1.30905
Zr         0.70784        0.70673       -1.65055
Si        -2.95182       -0.40071        2.29443
Si        -5.29329        2.11319       -0.39088
Si        -4.65193       -1.79724       -1.46558
O          1.17047       -0.80153       -2.76294
Zr         2.69954       -1.84117       -3.61385
O          1.78961        0.32906        0.01788
Zr         3.45423       -0.69250        0.28912
O          1.52874        2.32059       -2.42608
Zr         3.32019        3.07453       -2.83628
O         -6.30259        1.76732       -1.65717
O         -5.44687        3.68028        0.05984
O         -5.76721        1.08545        0.81639
O         -3.50601       -1.97299        2.26095
O         -4.03994        0.60192        2.98173
O         -1.51274       -0.31185        3.10045
O         -4.97390       -2.52135       -2.90029
O         -6.04082       -1.02047       -0.97357
O         -4.21989       -2.88703       -0.34024
H         -6.38886       -0.36717       -1.60281
H         -4.21233       -2.86813       -3.37752
H         -3.92943       -2.60256        0.54609
H         -4.78107        0.84544        2.39047
H         -6.04405        0.21773        0.45311
H         -6.24075        2.34318       -2.42744
H         -4.62851        4.12226        0.31086
H         -0.83615        0.10482        2.53314
H         -4.05643       -2.25627        2.99954
O          2.07229       -2.21118       -5.44189
H          2.30103       -1.85044       -6.30408
O          4.17213       -0.60177       -3.89353
H          4.55867        0.15232       -3.40430
O          3.09200       -3.74073       -3.01070
H          2.99029       -4.52077       -3.56698
O          4.60549        1.65110       -2.30945
H          4.96681        1.40037       -1.43317
O          3.49482        3.40367       -4.75576
H          3.50215        4.06754       -5.44930
O          3.57945        4.67943       -1.76248
H          3.28857        5.35175       -1.14349
O          3.53418       -1.97616       -1.24309
H          3.60461       -2.94227       -1.37995
O          5.01474        0.56162        0.20561
H          5.66823        0.83989        0.85654
O          3.28886       -1.53439        2.02994
H          2.50218       -1.49349        2.60325
