51

Si        -2.76356        0.50373       -0.80236
O         -2.64408       -0.06281        0.73154
O         -3.71347        1.85730       -0.78988
O         -3.46982       -0.65647       -1.71915
O         -1.26704        0.87374       -1.30905
Zr         0.60388        0.56245       -0.64016
Si        -2.95182       -0.40071        2.29443
Si        -5.29329        2.11319       -0.39088
Si        -4.65193       -1.79724       -1.46558
O          1.40988       -1.04857       -1.33388
Zr         3.06065       -2.23876       -1.29649
O          0.70822        0.24301        1.35573
Zr         1.93738       -0.85520        2.43797
O          1.83653        2.06228       -0.97329
Zr         3.66245        2.67388       -0.48545
O         -6.30259        1.76732       -1.65717
O         -5.44687        3.68028        0.05984
O         -5.76721        1.08545        0.81639
O         -3.50601       -1.97299        2.26095
O         -4.03994        0.60192        2.98173
O         -1.51274       -0.31185        3.10045
O         -4.97390       -2.52135       -2.90029
O         -6.04082       -1.02047       -0.97357
O         -4.21989       -2.88703       -0.34024
H         -6.38886       -0.36717       -1.60281
H         -4.21233       -2.86813       -3.37752
H         -3.92943       -2.60256        0.54609
H         -4.78107        0.84544        2.39047
H         -6.04405        0.21773        0.45311
H         -6.24075        2.34318       -2.42744
H         -4.62851        4.12226        0.31086
H         -0.83615        0.10482        2.53314
H         -4.05643       -2.25627        2.99954
O          3.36306       -2.70291       -3.18466
H          4.01033       -2.42089       -3.83837
O          4.58878       -1.11497       -0.86669
H          4.75651       -0.35195       -0.27756
O          2.94318       -4.10935       -0.51340
H          3.05370       -4.92043       -1.02153
O          4.40209        1.21741        0.64914
H          4.27200        1.01006        1.59855
O          4.76979        2.85027       -2.08729
H          5.16965        3.45986       -2.71203
O          3.51272        4.33441        0.52260
H          3.02027        5.06670        0.89811
O          2.63234       -2.25016        1.18378
H          2.67403       -3.22618        1.13196
O          3.44880        0.29228        3.08129
H          3.72895        0.57727        3.95792
O          0.87880       -1.55566        3.90608
H         -0.07969       -1.42514        4.02220
