51

Si        -2.76356        0.50373       -0.80236
O         -2.64408       -0.06281        0.73154
O         -3.71347        1.85730       -0.78988
O         -3.46982       -0.65647       -1.71915
O         -1.26704        0.87374       -1.30905
Zr         0.72115        0.62575       -1.13512
Si        -2.95182       -0.40071        2.29443
Si        -5.29329        2.11319       -0.39088
Si        -4.65193       -1.79724       -1.46558
O          1.38472       -0.93396       -2.05885
Zr         3.03325       -2.05466       -2.47035
O          1.33000        0.26554        0.76121
Zr         2.82730       -0.80472        1.46886
O          1.77911        2.18298       -1.71445
Zr         3.64655        2.85907       -1.67471
O         -6.30259        1.76732       -1.65717
O         -5.44687        3.68028        0.05984
O         -5.76721        1.08545        0.81639
O         -3.50601       -1.97299        2.26095
O         -4.03994        0.60192        2.98173
O         -1.51274       -0.31185        3.10045
O         -4.97390       -2.52135       -2.90029
O         -6.04082       -1.02047       -0.97357
O         -4.21989       -2.88703       -0.34024
H         -6.38886       -0.36717       -1.60281
H         -4.21233       -2.86813       -3.37752
H         -3.92943       -2.60256        0.54609
H         -4.78107        0.84544        2.39047
H         -6.04405        0.21773        0.45311
H         -6.24075        2.34318       -2.42744
H         -4.62851        4.12226        0.31086
H         -0.83615        0.10482        2.53314
H         -4.05643       -2.25627        2.99954
O          2.87220       -2.46261       -4.38861
H          3.32617       -2.13896       -5.17282
O          4.58019       -0.87808       -2.39639
H          4.86259       -0.12234       -1.84275
O          3.17958       -3.94589       -1.74372
H          3.18833       -4.73984       -2.28944
O          4.69555        1.40930       -0.80669
H          4.81314        1.17512        0.13809
O          4.31355        3.11805       -3.49440
H          4.52386        3.75790       -4.17861
O          3.69471        4.48849       -0.60764
H          3.28602        5.19082       -0.09825
O          3.23638       -2.14047        0.03698
H          3.29782       -3.11247       -0.05521
O          4.41038        0.38996        1.75448
H          4.88980        0.66635        2.54312
O          2.19247       -1.58209        3.12997
H          1.28910       -1.49442        3.48416
