51

Si        -2.76356        0.50373       -0.80236
O         -2.64408       -0.06281        0.73154
O         -3.71347        1.85730       -0.78988
O         -3.46982       -0.65647       -1.71915
O         -1.26704        0.87374       -1.30905
Zr         0.59181        0.75391       -2.06733
Si        -2.95182       -0.40071        2.29443
Si        -5.29329        2.11319       -0.39088
Si        -4.65193       -1.79724       -1.46558
O          0.83004       -0.72233       -3.28809
Zr         2.15843       -1.71349       -4.46959
O          2.01059        0.36556       -0.67709
Zr         3.71064       -0.62691       -0.79099
O          1.20271        2.39921       -2.96156
Zr         2.85321        3.19756       -3.72608
O         -6.30259        1.76732       -1.65717
O         -5.44687        3.68028        0.05984
O         -5.76721        1.08545        0.81639
O         -3.50601       -1.97299        2.26095
O         -4.03994        0.60192        2.98173
O         -1.51274       -0.31185        3.10045
O         -4.97390       -2.52135       -2.90029
O         -6.04082       -1.02047       -0.97357
O         -4.21989       -2.88703       -0.34024
H         -6.38886       -0.36717       -1.60281
H         -4.21233       -2.86813       -3.37752
H         -3.92943       -2.60256        0.54609
H         -4.78107        0.84544        2.39047
H         -6.04405        0.21773        0.45311
H         -6.24075        2.34318       -2.42744
H         -4.62851        4.12226        0.31086
H         -0.83615        0.10482        2.53314
H         -4.05643       -2.25627        2.99954
O          1.16134       -2.06008       -6.13024
H          1.19505       -1.67779       -7.01260
O          3.51766       -0.43897       -5.02721
H          3.98778        0.31305       -4.61387
O          2.70047       -3.61617       -4.00900
H          2.49467       -4.38699       -4.54912
O          4.24360        1.79057       -3.51900
H          4.78755        1.53003       -2.74601
O          2.60888        3.56803       -5.63036
H          2.45754        4.24548       -6.29365
O          3.31038        4.78591       -2.69453
H          3.14777        5.43979       -2.01206
O          3.48191       -1.87817       -2.33497
H          3.53671       -2.83975       -2.50650
O          5.19739        0.66025       -1.17537
H          5.97030        0.93891       -0.67223
O          3.93396       -1.50621        0.92470
H          3.28724       -1.49273        1.65325
