51

Si        -2.76356        0.50373       -0.80236
O         -2.64408       -0.06281        0.73154
O         -3.71347        1.85730       -0.78988
O         -3.46982       -0.65647       -1.71915
O         -1.26704        0.87374       -1.30905
Zr         0.62505        0.56920       -0.69920
Si        -2.95182       -0.40071        2.29443
Si        -5.29329        2.11319       -0.39088
Si        -4.65193       -1.79724       -1.46558
O          1.41684       -1.03560       -1.42305
Zr         3.07356       -2.21795       -1.44069
O          0.79234        0.24357        1.29140
Zr         2.05942       -0.85234        2.33142
O          1.83978        2.07604       -1.06489
Zr         3.67697        2.69477       -0.63138
O         -6.30259        1.76732       -1.65717
O         -5.44687        3.68028        0.05984
O         -5.76721        1.08545        0.81639
O         -3.50601       -1.97299        2.26095
O         -4.03994        0.60192        2.98173
O         -1.51274       -0.31185        3.10045
O         -4.97390       -2.52135       -2.90029
O         -6.04082       -1.02047       -0.97357
O         -4.21989       -2.88703       -0.34024
H         -6.38886       -0.36717       -1.60281
H         -4.21233       -2.86813       -3.37752
H         -3.92943       -2.60256        0.54609
H         -4.78107        0.84544        2.39047
H         -6.04405        0.21773        0.45311
H         -6.24075        2.34318       -2.42744
H         -4.62851        4.12226        0.31086
H         -0.83615        0.10482        2.53314
H         -4.05643       -2.25627        2.99954
O          3.31982       -2.67431       -3.33889
H          3.94530       -2.38699       -4.01124
O          4.60891       -1.08828       -1.05424
H          4.79113       -0.32644       -0.46788
O          2.98907       -4.09171       -0.66091
H          3.08769       -4.90053       -1.17503
O          4.45807        1.23807        0.47478
H          4.35827        1.02692        1.42702
O          4.73358        2.88185       -2.26594
H          5.11113        3.49545       -2.90056
O          3.55059        4.35117        0.38661
H          3.06651        5.07983        0.77967
O          2.72195       -2.23973        1.05154
H          2.76661       -3.21536        0.99505
O          3.58454        0.30022        2.93189
H          3.89024        0.58362        3.80047
O          1.04989       -1.56280        3.82897
H          0.09483       -1.43728        3.97501
